5280980
  -OEChem-09242307023D

 23 24  0     1  0  0  0  0  0999 V2000
   -0.5983    1.0573    0.9895 O   0  0  0  0  0  0  0  0  0  0  0  0
    2.7283    1.1491   -1.5246 O   0  0  0  0  0  0  0  0  0  0  0  0
    0.6612   -2.9572   -0.8660 O   0  0  0  0  0  0  0  0  0  0  0  0
    0.4364   -2.3130    1.3090 O   0  0  0  0  0  0  0  0  0  0  0  0
   -3.9649    1.0938   -0.9074 O   0  0  0  0  0  0  0  0  0  0  0  0
    1.4226    0.1365    0.1606 N   0  0  0  0  0  0  0  0  0  0  0  0
    0.8386    1.0226    1.1708 C   0  0  1  0  0  0  0  0  0  0  0  0
    0.3967   -0.6647   -0.4520 C   0  0  2  0  0  0  0  0  0  0  0  0
    1.7014    2.1539    0.5837 C   0  0  0  0  0  0  0  0  0  0  0  0
    2.1240    1.1207   -0.4765 C   0  0  0  0  0  0  0  0  0  0  0  0
   -0.8449    0.0274    0.0612 C   0  0  0  0  0  0  0  0  0  0  0  0
    0.4947   -2.0410    0.1190 C   0  0  0  0  0  0  0  0  0  0  0  0
   -2.0912   -0.2406   -0.3438 C   0  0  0  0  0  0  0  0  0  0  0  0
   -3.3048    0.4553    0.1765 C   0  0  0  0  0  0  0  0  0  0  0  0
    1.1073    0.7279    2.1915 H   0  0  0  0  0  0  0  0  0  0  0  0
    0.4741   -0.6323   -1.5427 H   0  0  0  0  0  0  0  0  0  0  0  0
    2.5197    2.4991    1.2204 H   0  0  0  0  0  0  0  0  0  0  0  0
    1.1496    3.0051    0.1776 H   0  0  0  0  0  0  0  0  0  0  0  0
   -2.2501   -1.0248   -1.0801 H   0  0  0  0  0  0  0  0  0  0  0  0
   -3.0790    1.2170    0.9276 H   0  0  0  0  0  0  0  0  0  0  0  0
   -3.9923   -0.2673    0.6274 H   0  0  0  0  0  0  0  0  0  0  0  0
    0.7287   -3.8691   -0.5107 H   0  0  0  0  0  0  0  0  0  0  0  0
   -4.2432    0.4043   -1.5345 H   0  0  0  0  0  0  0  0  0  0  0  0
  1  7  1  0  0  0  0
  1 11  1  0  0  0  0
  2 10  2  0  0  0  0
  3 12  1  0  0  0  0
  3 22  1  0  0  0  0
  4 12  2  0  0  0  0
  5 14  1  0  0  0  0
  5 23  1  0  0  0  0
  6  7  1  0  0  0  0
  6  8  1  0  0  0  0
  6 10  1  0  0  0  0
  7  9  1  0  0  0  0
  7 15  1  0  0  0  0
  8 11  1  0  0  0  0
  8 12  1  0  0  0  0
  8 16  1  0  0  0  0
  9 10  1  0  0  0  0
  9 17  1  0  0  0  0
  9 18  1  0  0  0  0
 11 13  2  0  0  0  0
 13 14  1  0  0  0  0
 13 19  1  0  0  0  0
 14 20  1  0  0  0  0
 14 21  1  0  0  0  0
M  END
> <PUBCHEM_COMPOUND_CID>
5280980

> <PUBCHEM_CONFORMER_RMSD>
0.6

> <PUBCHEM_CONFORMER_DIVERSEORDER>
1
2
3
4

> <PUBCHEM_MMFF94_PARTIAL_CHARGES>
17
1 -0.33
10 0.58
11 -0.06
12 0.66
13 -0.29
14 0.42
19 0.15
2 -0.57
22 0.5
23 0.4
3 -0.65
4 -0.57
5 -0.68
6 -0.59
7 0.48
8 0.5
9 0.05

> <PUBCHEM_EFFECTIVE_ROTOR_COUNT>
2.6

> <PUBCHEM_PHARMACOPHORE_FEATURES>
8
1 1 acceptor
1 2 acceptor
1 3 acceptor
1 4 acceptor
1 5 acceptor
1 5 donor
3 3 4 12 anion
7 1 6 7 8 9 10 11 rings

> <PUBCHEM_HEAVY_ATOM_COUNT>
14

> <PUBCHEM_ATOM_DEF_STEREO_COUNT>
2

> <PUBCHEM_ATOM_UDEF_STEREO_COUNT>
0

> <PUBCHEM_BOND_DEF_STEREO_COUNT>
1

> <PUBCHEM_BOND_UDEF_STEREO_COUNT>
0

> <PUBCHEM_ISOTOPIC_ATOM_COUNT>
0

> <PUBCHEM_COMPONENT_COUNT>
1

> <PUBCHEM_CACTVS_TAUTO_COUNT>
1

> <PUBCHEM_CONFORMER_ID>
005094D400000001

> <PUBCHEM_MMFF94_ENERGY>
33.0396

> <PUBCHEM_FEATURE_SELFOVERLAP>
40.654

> <PUBCHEM_SHAPE_FINGERPRINT>
1 1 18410002239110392918
11031198 65 18410295800636829429
12138202 97 17982175818397896660
12423570 1 10814922041816978960
13380535 21 18411145731915507795
14817 1 14205289325886980294
15490181 7 18123745610953318491
16945 1 18060150841876334320
18186145 218 18201165458854690529
20559304 39 18057593288168525225
20645476 183 18116158955289269092
20645477 70 18339914906476752679
20711985 344 17543624687757555546
20820808 20 18411983576428384161
21040471 1 18195519518174807120
21524375 3 18335695113091098311
21930827 45 17980758560572841352
23419403 2 17250676040881224802
25 1 18340499918843755841
2748010 2 18127134305763646353
3060560 45 18411129273131558957
3071541 250 17983591714243383607
430814 3 17604426430837819364
7364860 26 18270673152336268403
81228 2 17473261458159754707

> <PUBCHEM_SHAPE_MULTIPOLES>
253.79
4.09
2.55
1.14
4.08
2.12
0
-2.96
-1.49
-0.9
0.16
-0.4
-0.04
0.13

> <PUBCHEM_SHAPE_SELFOVERLAP>
536.387

> <PUBCHEM_SHAPE_VOLUME>
141.9

> <PUBCHEM_COORDINATE_TYPE>
2
5
10

$$$$
